Version 4.1
SHEET 1 880 808
WIRE -448 -48 -448 -80
WIRE -448 16 -448 -48
WIRE 224 48 208 48
WIRE 256 48 224 48
WIRE 432 48 400 48
WIRE 448 48 432 48
WIRE -160 64 -160 32
WIRE 48 80 48 48
WIRE 256 80 208 80
WIRE 512 112 400 112
WIRE 544 112 512 112
WIRE -160 176 -160 144
WIRE 208 176 208 80
WIRE 48 192 48 160
WIRE -160 208 -160 176
WIRE -160 208 -256 208
WIRE 544 208 544 112
WIRE 624 208 544 208
WIRE -448 224 -448 192
WIRE -256 224 -256 208
WIRE 48 224 48 192
WIRE 48 224 -48 224
WIRE -48 240 -48 224
WIRE 208 256 208 176
WIRE 256 256 208 256
WIRE 432 256 400 256
WIRE 448 256 432 256
WIRE 624 256 544 256
WIRE -448 288 -448 224
WIRE 224 288 208 288
WIRE 256 288 224 288
WIRE 496 320 400 320
WIRE 544 320 544 256
WIRE 544 320 496 320
WIRE -256 336 -256 288
WIRE -160 336 -160 288
WIRE -160 336 -256 336
WIRE -160 352 -160 336
WIRE -48 352 -48 304
WIRE 48 352 48 304
WIRE 48 352 -48 352
WIRE 48 368 48 352
WIRE 288 448 288 416
WIRE 288 464 288 448
WIRE 224 480 208 480
WIRE 256 480 224 480
WIRE 432 496 320 496
WIRE 464 496 432 496
WIRE 256 512 208 512
WIRE 464 592 464 496
WIRE 544 592 464 592
WIRE 208 608 208 512
WIRE 544 640 464 640
WIRE 288 656 288 624
WIRE 288 672 288 656
WIRE 208 688 208 608
WIRE 256 688 208 688
WIRE 416 704 320 704
WIRE 464 704 464 640
WIRE 464 704 416 704
WIRE 224 720 208 720
WIRE 256 720 224 720
FLAG 48 368 0
FLAG 48 48 vdd1
FLAG -160 352 0
FLAG -160 32 vdd1
FLAG 48 192 vmax
FLAG -160 176 vmin
FLAG 208 176 vout
FLAG 224 48 vmax
FLAG 224 288 vmin
FLAG 256 112 0
FLAG 256 320 0
FLAG 400 80 0
FLAG 400 288 0
FLAG 432 48 vdd1
FLAG 432 256 vdd1
FLAG 512 112 vmaxc
FLAG 496 320 vminc
FLAG -448 96 0
FLAG -448 -48 vdd1
FLAG -448 368 0
FLAG -448 224 vout
FLAG 208 608 vout
FLAG 224 480 vmax
FLAG 224 720 vmin
FLAG 288 448 vdd1
FLAG 288 656 vdd1
FLAG 432 496 vmaxc2
FLAG 416 704 vminc2
FLAG 288 736 0
FLAG 288 528 0
SYMBOL res 32 64 R0
SYMATTR InstName R1
SYMATTR Value 40.3k
SYMBOL res 32 208 R0
SYMATTR InstName R2
SYMATTR Value 470
SYMBOL cap -64 240 R0
SYMATTR InstName C1
SYMATTR Value 1µ
SYMBOL res -176 48 R0
SYMATTR InstName R3
SYMATTR Value 32.9k
SYMBOL res -176 192 R0
SYMATTR InstName R4
SYMATTR Value 100
SYMBOL cap -272 224 R0
SYMATTR InstName C2
SYMATTR Value 1µ
SYMBOL TLV3501 320 288 R0
SYMATTR InstName U1
SYMBOL TLV3501 320 80 R0
SYMATTR InstName U2
SYMBOL voltage -448 0 R0
SYMATTR InstName Vdd1
SYMATTR Value 3.3
SYMBOL voltage -448 272 R0
WINDOW 123 0 0 Left 0
WINDOW 39 0 0 Left 0
SYMATTR InstName Vdd2
SYMATTR Value PULSE(1m 50m 1u 1000m 1000m)
SYMBOL Comparators\\LT1017 288 496 R0
SYMATTR InstName U3
SYMBOL Comparators\\LT1017 288 704 R0
SYMATTR InstName U4
TEXT -136 -80 Left 2 !.include LMV761.lib
TEXT -352 -112 Left 2 ;.dc Vdd2 8m 40m
TEXT -344 -144 Left 2 !.tran 1
TEXT -136 -112 Left 2 !.include TLV3501.lib
